Reffs/Redes/Rede_03/_trafo3 - Copia/ckt03_VLL.Txt

SYMMETRICAL COMPONENT PHASE-PHASE VOLTAGES BY BUS (for 3-phase buses)

Bus                    Mag:   V1 (kV)    p.u.     V2 (kV)   %V2/V1    V0 (kV)    %V0/V1

bus_xfmr_pri_33998182      11.9          1  5.28E-009  4.437E-008 1.137E-015 9.554E-015
bus_xfmr_sec_33998182      0.22          1  7.187E-010  3.267E-007 3.553E-017 1.615E-014
bus_33998182_001           0.22          1  8.419E-010  3.827E-007 2.93E-017 1.332E-014
bus_33998182_013          0.127     0.5774          0          0         0         0
bus_33998182_006           0.22          1  8.867E-010  4.03E-007 2.247E-017 1.021E-014
bus_33998182_014           0.22          1  8.447E-010  3.84E-007 2.247E-017 1.021E-014
bus_33998182_002           0.22          1  8.549E-010  3.886E-007 2.93E-017 1.332E-014
bus_33998182_003           0.22          1  9.751E-010  4.432E-007 1.589E-017 7.222E-015
bus_33998182_015          0.127     0.5774          0          0         0         0
bus_33998182_016         0.1467     0.6667    0.07333         50 2.182E-017 1.488E-014
bus_33998182_004           0.22          1  8.689E-010  3.949E-007 2.93E-017 1.332E-014
bus_33998182_005           0.22          1  1.132E-009  5.145E-007 2.01E-017 9.135E-015
bus_33998182_017           0.22          1  9.758E-010  4.435E-007 2.93E-017 1.332E-014
bus_33998182_018          0.127     0.5774          0          0         0         0
bus_33998182_019         0.1467     0.6667    0.07333         50 2.657E-017 1.812E-014
bus_33998182_020           0.22          1  1.133E-009  5.148E-007 2.842E-017 1.292E-014
bus_33998182_021         0.1467     0.6667    0.07333         50 2.562E-017 1.747E-014
bus_33998182_022          0.127     0.5774          0          0         0         0
bus_33998182_007           0.22          1  1.168E-009  5.31E-007 2.247E-017 1.021E-014
bus_33998182_023         0.1467     0.6667    0.07333         50 2.397E-017 1.634E-014
bus_33998182_008           0.22          1  1.313E-009  5.967E-007 2.247E-017 1.021E-014
bus_33998182_009           0.22          1  1.238E-009  5.627E-007 3.553E-017 1.615E-014
bus_33998182_010           0.22          1  1.225E-009  5.57E-007 2.842E-017 1.292E-014
bus_33998182_024         0.1467     0.6667    0.07333         50 2.222E-017 1.515E-014
bus_33998182_011           0.22          1  1.847E-009  8.394E-007 2.842E-017 1.292E-014
bus_33998182_025          0.127     0.5774          0          0         0         0
bus_33998182_026         0.1467     0.6667    0.07333         50 1.005E-017 6.851E-015
bus_33998182_027          0.127     0.5774          0          0         0         0
bus_33998182_012           0.22          1  1.241E-009  5.64E-007 2.247E-017 1.021E-014
bus_33998182_028          0.127     0.5774          0          0         0         0
bus_33998182_029          0.127     0.5774          0          0         0         0
bus_33998182_030          0.127     0.5774          0          0         0         0
bus_33998182_031          0.127     0.5774          0          0         0         0
bus_33998182_032          0.127     0.5774          0          0         0         0
bus_33998182_033          0.127     0.5774          0          0         0         0
bus_33998182_034         0.1467     0.6667    0.07333         50 1.421E-017 9.689E-015
bus_33998182_035          0.127     0.5774          0          0         0         0
bus_33998182_036          0.127     0.5774          0          0         0         0
bus_33998182_037          0.127     0.5774          0          0         0         0
bus_33998182_038          0.127     0.5774          0          0         0         0
bus_33998182_039          0.127     0.5774          0          0         0         0
